Version 4
SHEET 1 1588 1124
WIRE 1072 -112 1040 -112
WIRE 1168 -112 1152 -112
WIRE 1376 -112 1344 -112
WIRE 1472 -112 1456 -112
WIRE 544 -80 528 -80
WIRE 640 -80 624 -80
WIRE 656 -80 640 -80
WIRE 832 -80 736 -80
WIRE 528 -64 528 -80
WIRE 1040 -16 1040 -112
WIRE 1072 -16 1040 -16
WIRE 1168 -16 1168 -112
WIRE 1168 -16 1136 -16
WIRE 1344 0 1344 -112
WIRE 1376 0 1344 0
WIRE 1472 0 1472 -112
WIRE 1472 0 1440 0
WIRE 752 16 688 16
WIRE 1152 32 1088 32
WIRE 688 48 688 16
WIRE 1456 48 1392 48
WIRE 640 64 640 -80
WIRE 672 64 640 64
WIRE 1088 64 1088 32
WIRE 832 80 832 -80
WIRE 832 80 736 80
WIRE 928 80 832 80
WIRE 1040 80 1040 -16
WIRE 1040 80 1008 80
WIRE 1072 80 1040 80
WIRE 1392 80 1392 48
WIRE 352 96 288 96
WIRE 464 96 432 96
WIRE 528 96 464 96
WIRE 640 96 608 96
WIRE 672 96 640 96
WIRE 1168 96 1168 -16
WIRE 1168 96 1136 96
WIRE 1232 96 1168 96
WIRE 1344 96 1344 0
WIRE 1344 96 1312 96
WIRE 1376 96 1344 96
WIRE 752 112 752 16
WIRE 752 112 720 112
WIRE 1072 112 1040 112
WIRE 1472 112 1472 0
WIRE 1472 112 1440 112
WIRE 288 128 288 96
WIRE 464 128 464 96
WIRE 640 128 640 96
WIRE 688 128 688 112
WIRE 1152 128 1152 32
WIRE 1152 128 1120 128
WIRE 1376 128 1344 128
WIRE 1088 144 1088 128
WIRE 1456 144 1456 48
WIRE 1456 144 1424 144
WIRE 1392 160 1392 144
WIRE 1040 192 1040 112
WIRE 640 208 640 192
WIRE 1344 208 1344 128
WIRE 464 240 464 192
WIRE 832 240 832 80
WIRE 832 240 464 240
WIRE 1088 256 1088 224
WIRE 1392 256 1392 240
WIRE -112 656 -112 640
FLAG -128 -32 0
FLAG -112 816 0
FLAG -128 -112 3V3
FLAG -128 448 0
FLAG -128 288 In1
FLAG 288 208 0
FLAG 688 128 0
FLAG 688 16 3V3
FLAG 528 -64 0
FLAG 1040 192 0
FLAG 1088 64 3V3
FLAG 640 208 0
FLAG 1344 208 0
FLAG 1392 80 3V3
FLAG 1392 256 0
FLAG 1088 256 0
SYMBOL voltage -112 720 R0
WINDOW 123 0 0 Left 0
WINDOW 39 0 0 Left 0
WINDOW 0 -51 35 Right 2
WINDOW 3 -48 71 Right 2
SYMATTR InstName Pulse
SYMATTR Value PULSE(0 3.6 2m 125u 125u 4m 1 1)
SYMBOL voltage -128 -128 R0
WINDOW 123 0 0 Left 0
WINDOW 39 0 0 Left 0
WINDOW 3 39 59 Left 2
SYMATTR Value 5
SYMATTR InstName V3
SYMBOL bv -112 640 R0
WINDOW 3 -39 69 Right 2
WINDOW 0 -42 33 Right 2
SYMATTR Value V=(white(2e6*time))
SYMATTR InstName Noise
SYMBOL voltage -128 352 R0
WINDOW 123 0 0 Left 0
WINDOW 39 0 0 Left 0
WINDOW 0 -78 24 Left 2
WINDOW 3 -635 53 Left 2
SYMATTR InstName V1
SYMATTR Value PULSE(0 3.2 0.002 0.000285 0.000125 0.008 1 1)
SYMBOL bv -128 272 R0
WINDOW 3 -330 47 Left 2
SYMATTR Value V=(white(2e5*time))
SYMATTR InstName Noise1
SYMBOL voltage 288 112 R0
WINDOW 123 0 0 Left 0
WINDOW 39 0 0 Left 0
WINDOW 3 -40 84 Right 2
WINDOW 0 -46 36 Right 2
SYMATTR Value PWL file=tablon.txt
SYMATTR InstName REAL
SYMBOL OpAmps\\ADA4895 704 80 R0
WINDOW 3 7 50 Left 2
SYMATTR InstName U1
SYMBOL res 448 80 R90
WINDOW 0 0 56 VBottom 2
WINDOW 3 32 56 VTop 2
SYMATTR InstName R1
SYMATTR Value 100R
SYMBOL cap 448 128 R0
SYMATTR InstName C1
SYMATTR Value 47µF
SYMBOL res 624 80 R90
WINDOW 0 0 56 VBottom 2
WINDOW 3 32 56 VTop 2
SYMATTR InstName R2
SYMATTR Value 100R
SYMBOL cap 624 128 R0
SYMATTR InstName C2
SYMATTR Value 47µF
SYMBOL res 752 -96 R90
WINDOW 0 0 56 VBottom 2
WINDOW 3 32 56 VTop 2
SYMATTR InstName R3
SYMATTR Value 10R
SYMBOL res 640 -96 R90
WINDOW 0 0 56 VBottom 2
WINDOW 3 32 56 VTop 2
SYMATTR InstName R4
SYMATTR Value 30R
SYMBOL OpAmps\\ADA4895 1104 96 R0
WINDOW 3 7 50 Left 2
SYMATTR InstName U2
SYMBOL res 1024 64 R90
WINDOW 0 0 56 VBottom 2
WINDOW 3 32 56 VTop 2
SYMATTR InstName R5
SYMATTR Value 10R
SYMBOL cap 1136 -32 R90
WINDOW 0 0 32 VBottom 2
WINDOW 3 32 32 VTop 2
SYMATTR InstName C3
SYMATTR Value 50µF
SYMBOL OpAmps\\ADA4895 1408 112 R0
WINDOW 3 7 50 Left 2
SYMATTR InstName U3
SYMBOL res 1328 80 R90
WINDOW 0 0 56 VBottom 2
WINDOW 3 32 56 VTop 2
SYMATTR InstName R7
SYMATTR Value 10R
SYMBOL cap 1440 -16 R90
WINDOW 0 0 32 VBottom 2
WINDOW 3 32 32 VTop 2
SYMATTR InstName C4
SYMATTR Value 50µF
SYMBOL res 1168 -128 R90
WINDOW 0 0 56 VBottom 2
WINDOW 3 32 56 VTop 2
SYMATTR InstName R6
SYMATTR Value 90R
SYMBOL res 1472 -128 R90
WINDOW 0 0 56 VBottom 2
WINDOW 3 32 56 VTop 2
SYMATTR InstName R8
SYMATTR Value 50R
SYMBOL voltage 1088 240 R180
WINDOW 123 0 0 Left 0
WINDOW 39 0 0 Left 0
WINDOW 3 39 59 Left 2
SYMATTR Value 3
SYMATTR InstName V2
SYMBOL voltage 1392 256 R180
WINDOW 123 0 0 Left 0
WINDOW 39 0 0 Left 0
WINDOW 3 39 59 Left 2
SYMATTR Value 3
SYMATTR InstName V4
TEXT 128 -24 Left 2 !.tran 700m
