Version 4
SHEET 1 1596 680
WIRE 608 -384 592 -384
WIRE 704 -384 688 -384
WIRE 720 -384 704 -384
WIRE 832 -384 800 -384
WIRE 592 -368 592 -384
WIRE 224 -352 208 -352
WIRE 320 -352 304 -352
WIRE 336 -352 320 -352
WIRE 448 -352 416 -352
WIRE 208 -336 208 -352
WIRE 1040 -336 1008 -336
WIRE 816 -320 752 -320
WIRE 1008 -320 1008 -336
WIRE 416 -304 352 -304
WIRE 752 -304 752 -320
WIRE 352 -288 352 -304
WIRE 704 -288 704 -384
WIRE 736 -288 704 -288
WIRE 1040 -288 1040 -336
WIRE 320 -272 320 -352
WIRE 336 -272 320 -272
WIRE 832 -272 832 -384
WIRE 832 -272 800 -272
WIRE 944 -272 944 -304
WIRE 944 -272 832 -272
WIRE 1008 -272 944 -272
WIRE 448 -256 448 -352
WIRE 448 -256 400 -256
WIRE 544 -256 448 -256
WIRE 704 -256 624 -256
WIRE 736 -256 704 -256
WIRE 1168 -256 1072 -256
WIRE 176 -240 160 -240
WIRE 224 -240 176 -240
WIRE 336 -240 304 -240
WIRE 704 -240 704 -256
WIRE 816 -240 816 -320
WIRE 816 -240 784 -240
WIRE 1008 -240 976 -240
WIRE 416 -224 416 -304
WIRE 416 -224 384 -224
WIRE 752 -224 752 -240
WIRE 176 -208 176 -240
WIRE 1040 -208 1040 -224
WIRE 352 -192 352 -224
WIRE 704 -144 704 -176
WIRE 176 -96 176 -128
WIRE 288 0 272 0
WIRE 384 0 368 0
WIRE 400 0 384 0
WIRE 512 0 480 0
WIRE 272 16 272 0
WIRE 704 48 672 48
WIRE 496 64 432 64
WIRE 672 64 672 48
WIRE 432 80 432 64
WIRE 384 96 384 0
WIRE 416 96 384 96
WIRE 704 96 704 48
WIRE 512 112 512 0
WIRE 512 112 480 112
WIRE 608 112 608 80
WIRE 608 112 512 112
WIRE 672 112 608 112
WIRE 176 128 160 128
WIRE 224 128 176 128
WIRE 384 128 304 128
WIRE 416 128 384 128
WIRE 832 128 736 128
WIRE 384 144 384 128
WIRE 496 144 496 64
WIRE 496 144 464 144
WIRE 672 144 640 144
WIRE 176 160 176 128
WIRE 432 160 432 144
WIRE 704 176 704 160
WIRE 384 240 384 208
WIRE 176 272 176 240
WIRE 448 416 448 384
WIRE 560 416 560 384
WIRE 688 416 688 384
WIRE 448 528 448 496
WIRE 560 528 560 496
WIRE 688 528 688 496
FLAG 176 272 0
FLAG 448 528 0
FLAG 448 384 VCC
FLAG 384 240 0
FLAG 432 64 VCC
FLAG 272 16 0
FLAG 432 160 0
FLAG 672 64 0
FLAG 560 528 0
FLAG 560 384 VrefA
FLAG 688 528 0
FLAG 688 384 VrefB
FLAG 704 176 VCC
FLAG 640 144 VrefB
FLAG 176 -96 0
FLAG 1008 -320 0
FLAG 1040 -208 VCC
FLAG 976 -240 VrefA
FLAG 832 128 OUTB
IOPIN 832 128 Out
FLAG 1168 -256 OUTA
IOPIN 1168 -256 Out
FLAG 160 -240 INA
IOPIN 160 -240 In
FLAG 160 128 INB
IOPIN 160 128 In
FLAG 944 -304 FILTA
FLAG 608 80 FILTB
FLAG 208 -336 0
FLAG 416 -304 VCC
FLAG 352 -192 0
FLAG 704 -144 0
FLAG 752 -320 VCC
FLAG 592 -368 0
FLAG 752 -224 0
SYMBOL voltage 176 144 R0
WINDOW 0 -37 56 Right 2
WINDOW 3 -34 81 Right 2
WINDOW 123 0 0 Left 0
WINDOW 39 0 0 Left 0
SYMATTR InstName Signal
SYMATTR Value PWL file=tablaCH2.txt
SYMBOL voltage 448 400 R0
WINDOW 123 0 0 Left 0
WINDOW 39 0 0 Left 0
SYMATTR InstName VSS
SYMATTR Value 5
SYMBOL res 320 112 R90
WINDOW 0 0 56 VBottom 2
WINDOW 3 32 56 VTop 2
SYMATTR InstName R1
SYMATTR Value 32kR
SYMBOL OpAmps\\ADA4895 448 112 R0
WINDOW 3 15 46 Left 2
SYMATTR InstName U1
SYMBOL cap 400 208 R180
WINDOW 0 24 56 Left 2
WINDOW 3 24 8 Left 2
SYMATTR InstName C1
SYMATTR Value 100nF
SYMBOL res 496 -16 R90
WINDOW 0 0 56 VBottom 2
WINDOW 3 32 56 VTop 2
SYMATTR InstName R2
SYMATTR Value 96kR
SYMBOL res 384 -16 R90
WINDOW 0 0 56 VBottom 2
WINDOW 3 32 56 VTop 2
SYMATTR InstName R3
SYMATTR Value 48kR
SYMBOL Comparators\\LTC6752 704 192 M180
SYMATTR InstName U2
SYMBOL voltage 560 400 R0
WINDOW 123 0 0 Left 0
WINDOW 39 0 0 Left 0
SYMATTR InstName VrefA
SYMATTR Value 3.41
SYMBOL voltage 688 400 R0
WINDOW 123 0 0 Left 0
WINDOW 39 0 0 Left 0
SYMATTR InstName VrefB
SYMATTR Value 3.7
SYMBOL voltage 176 -224 R0
WINDOW 0 -37 56 Right 2
WINDOW 3 -34 81 Right 2
WINDOW 123 0 0 Left 0
WINDOW 39 0 0 Left 0
SYMATTR InstName Signal1
SYMATTR Value PWL file=tablaCH1.txt
SYMBOL Comparators\\LTC6752 1040 -192 M180
SYMATTR InstName U4
SYMBOL OpAmps\\ADA4895 368 -256 R0
WINDOW 3 15 46 Left 2
SYMATTR InstName U5
SYMBOL res 320 -256 R90
WINDOW 0 0 56 VBottom 2
WINDOW 3 32 56 VTop 2
SYMATTR InstName R7
SYMATTR Value 330R
SYMBOL res 320 -368 R90
WINDOW 0 0 56 VBottom 2
WINDOW 3 32 56 VTop 2
SYMATTR InstName R8
SYMATTR Value 500R
SYMBOL res 432 -368 R90
WINDOW 0 0 56 VBottom 2
WINDOW 3 32 56 VTop 2
SYMATTR InstName R9
SYMATTR Value 1kR
SYMBOL res 640 -272 R90
WINDOW 0 0 56 VBottom 2
WINDOW 3 32 56 VTop 2
SYMATTR InstName R4
SYMATTR Value 3.3kR
SYMBOL OpAmps\\ADA4895 768 -272 R0
WINDOW 3 15 46 Left 2
SYMATTR InstName U3
SYMBOL cap 720 -176 R180
WINDOW 0 24 56 Left 2
WINDOW 3 24 8 Left 2
SYMATTR InstName C2
SYMATTR Value 470nF
SYMBOL res 816 -400 R90
WINDOW 0 0 56 VBottom 2
WINDOW 3 32 56 VTop 2
SYMATTR InstName R5
SYMATTR Value 6.7kR
SYMBOL res 704 -400 R90
WINDOW 0 0 56 VBottom 2
WINDOW 3 32 56 VTop 2
SYMATTR InstName R6
SYMATTR Value 6.7kR
TEXT -272 312 Left 2 !.tran 600ms
