Version 4
SHEET 1 1916 680
WIRE 736 -352 720 -352
WIRE 832 -352 816 -352
WIRE 848 -352 832 -352
WIRE 960 -352 928 -352
WIRE 720 -336 720 -352
WIRE 1200 -320 1168 -320
WIRE 928 -304 864 -304
WIRE 1168 -304 1168 -320
WIRE 864 -288 864 -304
WIRE 832 -272 832 -352
WIRE 848 -272 832 -272
WIRE 1200 -272 1200 -320
WIRE 960 -256 960 -352
WIRE 960 -256 912 -256
WIRE 1104 -256 1104 -288
WIRE 1104 -256 960 -256
WIRE 1168 -256 1104 -256
WIRE 176 -240 160 -240
WIRE 240 -240 176 -240
WIRE 384 -240 320 -240
WIRE 496 -240 384 -240
WIRE 640 -240 576 -240
WIRE 736 -240 640 -240
WIRE 848 -240 816 -240
WIRE 1328 -240 1232 -240
WIRE 384 -224 384 -240
WIRE 640 -224 640 -240
WIRE 928 -224 928 -304
WIRE 928 -224 896 -224
WIRE 1168 -224 1136 -224
WIRE 176 -208 176 -240
WIRE 864 -192 864 -224
WIRE 1200 -192 1200 -208
WIRE 384 -128 384 -160
WIRE 640 -128 640 -160
WIRE 176 -96 176 -128
WIRE 736 16 720 16
WIRE 832 16 816 16
WIRE 848 16 832 16
WIRE 960 16 928 16
WIRE 720 32 720 16
WIRE 1200 48 1168 48
WIRE 928 64 864 64
WIRE 1168 64 1168 48
WIRE 864 80 864 64
WIRE 832 96 832 16
WIRE 848 96 832 96
WIRE 1200 96 1200 48
WIRE 960 112 960 16
WIRE 960 112 912 112
WIRE 1104 112 1104 80
WIRE 1104 112 960 112
WIRE 1168 112 1104 112
WIRE 176 128 160 128
WIRE 224 128 176 128
WIRE 384 128 304 128
WIRE 480 128 384 128
WIRE 640 128 560 128
WIRE 736 128 640 128
WIRE 848 128 816 128
WIRE 1328 128 1232 128
WIRE 384 144 384 128
WIRE 640 144 640 128
WIRE 928 144 928 64
WIRE 928 144 896 144
WIRE 1168 144 1136 144
WIRE 176 160 176 128
WIRE 864 176 864 144
WIRE 1200 176 1200 160
WIRE 384 240 384 208
WIRE 640 240 640 208
WIRE 176 272 176 240
WIRE 448 416 448 384
WIRE 560 416 560 384
WIRE 688 416 688 384
WIRE 448 528 448 496
WIRE 560 528 560 496
WIRE 688 528 688 496
FLAG 176 272 0
FLAG 448 528 0
FLAG 448 384 VCC
FLAG 384 240 0
FLAG 1168 64 0
FLAG 560 528 0
FLAG 560 384 VrefA
FLAG 688 528 0
FLAG 688 384 VrefB
FLAG 1200 176 VCC
FLAG 1136 144 VrefB
FLAG 176 -96 0
FLAG 1168 -304 0
FLAG 1200 -192 VCC
FLAG 1136 -224 VrefA
FLAG 1328 128 OUTB
IOPIN 1328 128 Out
FLAG 1328 -240 OUTA
IOPIN 1328 -240 Out
FLAG 160 -240 INA
IOPIN 160 -240 In
FLAG 160 128 INB
IOPIN 160 128 In
FLAG 1104 -288 FILTA
FLAG 1104 80 FILTB
FLAG 720 -336 0
FLAG 928 -304 VCC
FLAG 864 -192 0
FLAG 384 -128 0
FLAG 720 32 0
FLAG 928 64 VCC
FLAG 864 176 0
FLAG 640 240 0
FLAG 640 -128 0
SYMBOL voltage 176 144 R0
WINDOW 0 -37 56 Right 2
WINDOW 3 -34 81 Right 2
WINDOW 123 0 0 Left 0
WINDOW 39 0 0 Left 0
SYMATTR InstName Signal
SYMATTR Value PWL file=tablaCH2.txt
SYMBOL voltage 448 400 R0
WINDOW 123 0 0 Left 0
WINDOW 39 0 0 Left 0
SYMATTR InstName VSS
SYMATTR Value 5
SYMBOL res 320 112 R90
WINDOW 0 0 56 VBottom 2
WINDOW 3 32 56 VTop 2
SYMATTR InstName R1
SYMATTR Value 12kR
SYMBOL cap 400 208 R180
WINDOW 0 24 56 Left 2
WINDOW 3 24 8 Left 2
SYMATTR InstName C1
SYMATTR Value 220nF
SYMBOL Comparators\\LTC6752 1200 192 M180
SYMATTR InstName U2
SYMBOL voltage 560 400 R0
WINDOW 123 0 0 Left 0
WINDOW 39 0 0 Left 0
SYMATTR InstName VrefA
SYMATTR Value 3.28
SYMBOL voltage 688 400 R0
WINDOW 123 0 0 Left 0
WINDOW 39 0 0 Left 0
SYMATTR InstName VrefB
SYMATTR Value 3.28
SYMBOL voltage 176 -224 R0
WINDOW 0 -37 56 Right 2
WINDOW 3 -34 81 Right 2
WINDOW 123 0 0 Left 0
WINDOW 39 0 0 Left 0
SYMATTR InstName Signal1
SYMATTR Value PWL file=tablaCH1.txt
SYMBOL Comparators\\LTC6752 1200 -176 M180
SYMATTR InstName U4
SYMBOL OpAmps\\ADA4895 880 -256 R0
WINDOW 3 15 46 Left 2
SYMATTR InstName U5
SYMBOL res 832 -256 R90
WINDOW 0 0 56 VBottom 2
WINDOW 3 32 56 VTop 2
SYMATTR InstName R7
SYMATTR Value 500R
SYMBOL res 832 -368 R90
WINDOW 0 0 56 VBottom 2
WINDOW 3 32 56 VTop 2
SYMATTR InstName R8
SYMATTR Value 1kR
SYMBOL res 944 -368 R90
WINDOW 0 0 56 VBottom 2
WINDOW 3 32 56 VTop 2
SYMATTR InstName R9
SYMATTR Value 1kR
SYMBOL res 336 -256 R90
WINDOW 0 0 56 VBottom 2
WINDOW 3 32 56 VTop 2
SYMATTR InstName R4
SYMATTR Value 12kR
SYMBOL cap 400 -160 R180
WINDOW 0 24 56 Left 2
WINDOW 3 24 8 Left 2
SYMATTR InstName C2
SYMATTR Value 220nF
SYMBOL OpAmps\\ADA4895 880 112 R0
WINDOW 3 15 46 Left 2
SYMATTR InstName U1
SYMBOL res 832 112 R90
WINDOW 0 0 56 VBottom 2
WINDOW 3 32 56 VTop 2
SYMATTR InstName R2
SYMATTR Value 500R
SYMBOL res 832 0 R90
WINDOW 0 0 56 VBottom 2
WINDOW 3 32 56 VTop 2
SYMATTR InstName R3
SYMATTR Value 1kR
SYMBOL res 944 0 R90
WINDOW 0 0 56 VBottom 2
WINDOW 3 32 56 VTop 2
SYMATTR InstName R5
SYMATTR Value 1kR
SYMBOL res 576 112 R90
WINDOW 0 0 56 VBottom 2
WINDOW 3 32 56 VTop 2
SYMATTR InstName R6
SYMATTR Value 12kR
SYMBOL cap 656 208 R180
WINDOW 0 24 56 Left 2
WINDOW 3 24 8 Left 2
SYMATTR InstName C3
SYMATTR Value 220nF
SYMBOL res 592 -256 R90
WINDOW 0 0 56 VBottom 2
WINDOW 3 32 56 VTop 2
SYMATTR InstName R10
SYMATTR Value 12kR
SYMBOL cap 656 -160 R180
WINDOW 0 24 56 Left 2
WINDOW 3 24 8 Left 2
SYMATTR InstName C4
SYMATTR Value 220nF
TEXT -272 312 Left 2 !.tran 600ms
