Version 4
SHEET 1 1588 1124
WIRE 544 336 528 336
WIRE 640 336 624 336
WIRE 656 336 640 336
WIRE 832 336 736 336
WIRE 528 352 528 336
WIRE 1168 400 1104 400
WIRE 752 432 688 432
WIRE 1104 432 1104 400
WIRE 1088 448 1056 448
WIRE 688 464 688 432
WIRE 1248 464 1152 464
WIRE 640 480 640 336
WIRE 672 480 640 480
WIRE 832 496 832 336
WIRE 832 496 736 496
WIRE 896 496 832 496
WIRE 1168 496 1168 400
WIRE 1168 496 1136 496
WIRE 352 512 288 512
WIRE 464 512 432 512
WIRE 528 512 464 512
WIRE 640 512 608 512
WIRE 672 512 640 512
WIRE 1104 512 1104 496
WIRE 288 528 288 512
WIRE 752 528 752 432
WIRE 752 528 720 528
WIRE 464 544 464 512
WIRE 688 544 688 528
WIRE 640 560 640 512
WIRE 464 624 464 608
WIRE 640 656 640 624
WIRE 832 656 832 496
WIRE 832 656 640 656
WIRE 528 832 512 832
WIRE 624 832 608 832
WIRE 640 832 624 832
WIRE 784 832 720 832
WIRE 512 848 512 832
WIRE 976 896 912 896
WIRE 1136 912 1040 912
WIRE 976 928 912 928
WIRE 624 960 624 832
WIRE 656 960 624 960
WIRE 784 976 784 832
WIRE 784 976 720 976
WIRE 208 992 112 992
WIRE 320 992 288 992
WIRE 656 992 544 992
WIRE 320 1024 320 992
WIRE 672 1040 672 1008
WIRE 320 1104 320 1088
FLAG -128 -32 0
FLAG 288 688 0
FLAG -128 -112 3V3
FLAG 672 1040 0
FLAG 512 848 0
FLAG 320 1104 0
FLAG 112 992 In1
FLAG 320 992 Filter1
FLAG 784 832 INT1
FLAG 672 944 3V3
FLAG 544 992 Filter1
FLAG -128 448 0
FLAG -128 288 In1
FLAG -240 -32 0
FLAG -240 -112 1V
FLAG 992 944 0
FLAG 992 880 3V3
FLAG 912 928 INT1
FLAG 912 896 1V
FLAG 1136 912 OUT1
FLAG 688 544 0
FLAG 688 432 3V3
FLAG 464 624 0
FLAG 528 352 0
FLAG 1104 512 0
FLAG 1104 400 3V3
FLAG 1248 464 OUT1
FLAG 1056 448 1V
SYMBOL voltage 288 592 R0
WINDOW 123 0 0 Left 0
WINDOW 39 0 0 Left 0
WINDOW 0 -51 35 Right 2
WINDOW 3 -48 71 Right 2
SYMATTR InstName Pulse
SYMATTR Value PULSE(0 3.6 2m 125u 125u 4m 1 1)
SYMBOL voltage -128 -128 R0
WINDOW 123 0 0 Left 0
WINDOW 39 0 0 Left 0
WINDOW 3 39 59 Left 2
SYMATTR Value 3
SYMATTR InstName V3
SYMBOL bv 288 512 R0
WINDOW 3 -39 69 Right 2
WINDOW 0 -42 33 Right 2
SYMATTR Value V=(white(2e6*time))
SYMATTR InstName Noise
SYMBOL res 304 976 R90
WINDOW 0 0 56 VBottom 2
WINDOW 3 32 56 VTop 2
SYMATTR InstName R4
SYMATTR Value 330
SYMBOL cap 304 1024 R0
SYMATTR InstName C2
SYMATTR Value 0.000000750
SYMBOL res 736 816 R90
WINDOW 0 0 56 VBottom 2
WINDOW 3 32 56 VTop 2
SYMATTR InstName R5
SYMATTR Value 250
SYMBOL res 624 816 R90
WINDOW 0 0 56 VBottom 2
WINDOW 3 32 56 VTop 2
SYMATTR InstName R6
SYMATTR Value 200
SYMBOL voltage -128 352 R0
WINDOW 123 0 0 Left 0
WINDOW 39 0 0 Left 0
WINDOW 0 -78 24 Left 2
WINDOW 3 -635 53 Left 2
SYMATTR InstName V1
SYMATTR Value PULSE(0 3.2 0.002 0.000285 0.000125 0.008 1 1)
SYMBOL bv -128 272 R0
WINDOW 3 -330 47 Left 2
SYMATTR Value V=(white(2e5*time))
SYMATTR InstName Noise1
SYMBOL voltage -240 -128 R0
WINDOW 123 0 0 Left 0
WINDOW 39 0 0 Left 0
WINDOW 3 34 72 Left 2
SYMATTR Value 1
SYMATTR InstName V4
SYMBOL OpAmps\\ADA4857 1008 912 R0
SYMATTR InstName U3
SYMBOL OpAmps\\ADA4857 688 976 R0
SYMATTR InstName U4
SYMBOL OpAmps\\ADA4895 704 496 R0
WINDOW 3 7 50 Left 2
SYMATTR InstName U2
SYMBOL res 448 496 R90
WINDOW 0 0 56 VBottom 2
WINDOW 3 32 56 VTop 2
SYMATTR InstName R8
SYMATTR Value 330R
SYMBOL cap 448 544 R0
SYMATTR InstName C4
SYMATTR Value 100nF
SYMBOL res 624 496 R90
WINDOW 0 0 56 VBottom 2
WINDOW 3 32 56 VTop 2
SYMATTR InstName R9
SYMATTR Value 330R
SYMBOL cap 624 560 R0
SYMATTR InstName C5
SYMATTR Value 750nF
SYMBOL res 752 320 R90
WINDOW 0 0 56 VBottom 2
WINDOW 3 32 56 VTop 2
SYMATTR InstName R10
SYMATTR Value 100R
SYMBOL res 640 320 R90
WINDOW 0 0 56 VBottom 2
WINDOW 3 32 56 VTop 2
SYMATTR InstName R11
SYMATTR Value 100R
SYMBOL OpAmps\\ADA4895 1120 464 R0
WINDOW 3 7 50 Left 2
SYMATTR InstName U1
TEXT -632 -168 Left 2 !.tran 10m
