Version 4
SHEET 1 1328 680
WIRE 1216 -112 1152 -112
WIRE 816 -80 784 -80
WIRE 912 -80 880 -80
WIRE 1152 -80 1152 -112
WIRE 1216 -80 1216 -112
WIRE 288 0 272 0
WIRE 384 0 368 0
WIRE 400 0 384 0
WIRE 512 0 480 0
WIRE 272 16 272 0
WIRE 784 16 784 -80
WIRE 816 16 784 16
WIRE 912 16 912 -80
WIRE 912 16 896 16
WIRE 496 64 432 64
WIRE 1248 64 1184 64
WIRE 432 80 432 64
WIRE 896 80 832 80
WIRE 1184 80 1184 64
WIRE 384 96 384 0
WIRE 416 96 384 96
WIRE 832 96 832 80
WIRE 1152 96 1152 0
WIRE 1168 96 1152 96
WIRE 512 112 512 0
WIRE 512 112 480 112
WIRE 672 112 512 112
WIRE 784 112 784 16
WIRE 784 112 752 112
WIRE 816 112 784 112
WIRE 1280 112 1232 112
WIRE 224 128 176 128
WIRE 384 128 304 128
WIRE 416 128 384 128
WIRE 912 128 912 16
WIRE 912 128 880 128
WIRE 1056 128 912 128
WIRE 1168 128 1136 128
WIRE 384 144 384 128
WIRE 496 144 496 64
WIRE 496 144 464 144
WIRE 816 144 784 144
WIRE 1248 144 1248 64
WIRE 1248 144 1216 144
WIRE 176 160 176 128
WIRE 432 160 432 144
WIRE 784 160 784 144
WIRE 896 160 896 80
WIRE 896 160 864 160
WIRE 1184 176 1184 144
WIRE 832 208 832 160
WIRE 384 240 384 208
WIRE 784 256 784 240
WIRE 176 272 176 240
WIRE 448 416 448 384
WIRE 592 416 592 384
WIRE 448 528 448 496
WIRE 592 528 592 496
FLAG 176 272 0
FLAG 448 528 0
FLAG 448 384 VCC
FLAG 384 240 0
FLAG 432 64 VCC
FLAG 272 16 0
FLAG 784 256 0
FLAG 1184 176 0
FLAG 1184 64 VCC
FLAG 832 80 VCC
FLAG 832 208 0
FLAG 1216 -80 0
FLAG 592 384 NVCC
FLAG 592 528 0
FLAG 432 160 0
SYMBOL voltage 176 144 R0
WINDOW 0 -37 56 Right 2
WINDOW 3 -34 81 Right 2
WINDOW 123 0 0 Left 0
WINDOW 39 0 0 Left 0
SYMATTR InstName Signal
SYMATTR Value PWL file=tablon.txt
SYMBOL voltage 448 400 R0
WINDOW 123 0 0 Left 0
WINDOW 39 0 0 Left 0
SYMATTR InstName VSS
SYMATTR Value 5
SYMBOL res 320 112 R90
WINDOW 0 0 56 VBottom 2
WINDOW 3 32 56 VTop 2
SYMATTR InstName R1
SYMATTR Value 32kR
SYMBOL OpAmps\\ADA4895 448 112 R0
WINDOW 3 15 46 Left 2
SYMATTR InstName U1
SYMBOL cap 400 208 R180
WINDOW 0 24 56 Left 2
WINDOW 3 24 8 Left 2
SYMATTR InstName C1
SYMATTR Value 100nF
SYMBOL res 496 -16 R90
WINDOW 0 0 56 VBottom 2
WINDOW 3 32 56 VTop 2
SYMATTR InstName R2
SYMATTR Value 96kR
SYMBOL res 384 -16 R90
WINDOW 0 0 56 VBottom 2
WINDOW 3 32 56 VTop 2
SYMATTR InstName R3
SYMATTR Value 48kR
SYMBOL OpAmps\\ADA4895 848 128 R0
WINDOW 3 15 46 Left 2
SYMATTR InstName U2
SYMBOL res 768 96 R90
WINDOW 0 0 56 VBottom 2
WINDOW 3 32 56 VTop 2
SYMATTR InstName R4
SYMATTR Value 10R
SYMBOL res 912 0 R90
WINDOW 0 0 56 VBottom 2
WINDOW 3 32 56 VTop 2
SYMATTR InstName R5
SYMATTR Value 100R
SYMBOL cap 880 -96 R90
WINDOW 0 0 32 VBottom 2
WINDOW 3 32 32 VTop 2
SYMATTR InstName C2
SYMATTR Value 10pF
SYMBOL res 800 256 R180
WINDOW 0 36 76 Left 2
WINDOW 3 36 40 Left 2
SYMATTR InstName R6
SYMATTR Value 9R
SYMBOL OpAmps\\ADA4895 1200 112 R0
WINDOW 3 15 46 Left 2
SYMATTR InstName U3
SYMBOL res 1152 112 R90
WINDOW 0 0 56 VBottom 2
WINDOW 3 32 56 VTop 2
SYMATTR InstName R7
SYMATTR Value 10R
SYMBOL voltage 1152 16 R180
WINDOW 123 0 0 Left 0
WINDOW 39 0 0 Left 0
SYMATTR InstName VSS1
SYMATTR Value 120mV
SYMBOL voltage 592 512 R180
WINDOW 123 0 0 Left 0
WINDOW 39 0 0 Left 0
SYMATTR InstName VSS2
SYMATTR Value 5
TEXT -272 312 Left 2 !.tran 600ms
