Version 4
SHEET 1 880 680
WIRE 288 0 272 0
WIRE 384 0 368 0
WIRE 400 0 384 0
WIRE 512 0 480 0
WIRE 272 16 272 0
WIRE 496 64 432 64
WIRE 432 80 432 64
WIRE 384 96 384 0
WIRE 416 96 384 96
WIRE 512 112 512 0
WIRE 512 112 480 112
WIRE 224 128 176 128
WIRE 384 128 304 128
WIRE 416 128 384 128
WIRE 384 144 384 128
WIRE 496 144 496 64
WIRE 496 144 464 144
WIRE 176 160 176 128
WIRE 432 160 432 144
WIRE -240 176 -240 144
WIRE 384 240 384 208
WIRE 176 272 176 240
WIRE -240 288 -240 256
FLAG 176 272 0
FLAG -240 288 0
FLAG -240 144 VCC
FLAG 384 240 0
FLAG 432 64 VCC
FLAG 272 16 0
FLAG 432 160 0
SYMBOL voltage 176 144 R0
WINDOW 0 -37 56 Right 2
WINDOW 3 -34 81 Right 2
WINDOW 123 0 0 Left 0
WINDOW 39 0 0 Left 0
SYMATTR InstName Signal
SYMATTR Value PWL file=tablon.txt
SYMBOL voltage -240 160 R0
WINDOW 123 0 0 Left 0
WINDOW 39 0 0 Left 0
SYMATTR InstName VSS
SYMATTR Value 3.3V
SYMBOL res 320 112 R90
WINDOW 0 0 56 VBottom 2
WINDOW 3 32 56 VTop 2
SYMATTR InstName R1
SYMATTR Value 160kR
SYMBOL OpAmps\\ADA4895 448 112 R0
WINDOW 3 15 46 Left 2
SYMATTR InstName U1
SYMBOL cap 400 208 R180
WINDOW 0 24 56 Left 2
WINDOW 3 24 8 Left 2
SYMATTR InstName C1
SYMATTR Value 10nF
SYMBOL res 496 -16 R90
WINDOW 0 0 56 VBottom 2
WINDOW 3 32 56 VTop 2
SYMATTR InstName R2
SYMATTR Value 480kR
SYMBOL res 384 -16 R90
WINDOW 0 0 56 VBottom 2
WINDOW 3 32 56 VTop 2
SYMATTR InstName R3
SYMATTR Value 240kR
TEXT -272 312 Left 2 !.tran 600ms
